100
Ar atoms in cubic grid
Ar     0.000000     0.000000     0.000000
Ar     0.000000     0.000000     3.800000
Ar     0.000000     0.000000     7.600000
Ar     0.000000     0.000000    11.400000
Ar     0.000000     3.800000     0.000000
Ar     0.000000     3.800000     3.800000
Ar     0.000000     3.800000     7.600000
Ar     0.000000     3.800000    11.400000
Ar     0.000000     7.600000     0.000000
Ar     0.000000     7.600000     3.800000
Ar     0.000000     7.600000     7.600000
Ar     0.000000     7.600000    11.400000
Ar     0.000000    11.400000     0.000000
Ar     0.000000    11.400000     3.800000
Ar     0.000000    11.400000     7.600000
Ar     0.000000    11.400000    11.400000
Ar     0.000000    15.200000     0.000000
Ar     0.000000    15.200000     3.800000
Ar     0.000000    15.200000     7.600000
Ar     0.000000    15.200000    11.400000
Ar     3.800000     0.000000     0.000000
Ar     3.800000     0.000000     3.800000
Ar     3.800000     0.000000     7.600000
Ar     3.800000     0.000000    11.400000
Ar     3.800000     3.800000     0.000000
Ar     3.800000     3.800000     3.800000
Ar     3.800000     3.800000     7.600000
Ar     3.800000     3.800000    11.400000
Ar     3.800000     7.600000     0.000000
Ar     3.800000     7.600000     3.800000
Ar     3.800000     7.600000     7.600000
Ar     3.800000     7.600000    11.400000
Ar     3.800000    11.400000     0.000000
Ar     3.800000    11.400000     3.800000
Ar     3.800000    11.400000     7.600000
Ar     3.800000    11.400000    11.400000
Ar     3.800000    15.200000     0.000000
Ar     3.800000    15.200000     3.800000
Ar     3.800000    15.200000     7.600000
Ar     3.800000    15.200000    11.400000
Ar     7.600000     0.000000     0.000000
Ar     7.600000     0.000000     3.800000
Ar     7.600000     0.000000     7.600000
Ar     7.600000     0.000000    11.400000
Ar     7.600000     3.800000     0.000000
Ar     7.600000     3.800000     3.800000
Ar     7.600000     3.800000     7.600000
Ar     7.600000     3.800000    11.400000
Ar     7.600000     7.600000     0.000000
Ar     7.600000     7.600000     3.800000
Ar     7.600000     7.600000     7.600000
Ar     7.600000     7.600000    11.400000
Ar     7.600000    11.400000     0.000000
Ar     7.600000    11.400000     3.800000
Ar     7.600000    11.400000     7.600000
Ar     7.600000    11.400000    11.400000
Ar     7.600000    15.200000     0.000000
Ar     7.600000    15.200000     3.800000
Ar     7.600000    15.200000     7.600000
Ar     7.600000    15.200000    11.400000
Ar    11.400000     0.000000     0.000000
Ar    11.400000     0.000000     3.800000
Ar    11.400000     0.000000     7.600000
Ar    11.400000     0.000000    11.400000
Ar    11.400000     3.800000     0.000000
Ar    11.400000     3.800000     3.800000
Ar    11.400000     3.800000     7.600000
Ar    11.400000     3.800000    11.400000
Ar    11.400000     7.600000     0.000000
Ar    11.400000     7.600000     3.800000
Ar    11.400000     7.600000     7.600000
Ar    11.400000     7.600000    11.400000
Ar    11.400000    11.400000     0.000000
Ar    11.400000    11.400000     3.800000
Ar    11.400000    11.400000     7.600000
Ar    11.400000    11.400000    11.400000
Ar    11.400000    15.200000     0.000000
Ar    11.400000    15.200000     3.800000
Ar    11.400000    15.200000     7.600000
Ar    11.400000    15.200000    11.400000
Ar    15.200000     0.000000     0.000000
Ar    15.200000     0.000000     3.800000
Ar    15.200000     0.000000     7.600000
Ar    15.200000     0.000000    11.400000
Ar    15.200000     3.800000     0.000000
Ar    15.200000     3.800000     3.800000
Ar    15.200000     3.800000     7.600000
Ar    15.200000     3.800000    11.400000
Ar    15.200000     7.600000     0.000000
Ar    15.200000     7.600000     3.800000
Ar    15.200000     7.600000     7.600000
Ar    15.200000     7.600000    11.400000
Ar    15.200000    11.400000     0.000000
Ar    15.200000    11.400000     3.800000
Ar    15.200000    11.400000     7.600000
Ar    15.200000    11.400000    11.400000
Ar    15.200000    15.200000     0.000000
Ar    15.200000    15.200000     3.800000
Ar    15.200000    15.200000     7.600000
Ar    15.200000    15.200000    11.400000
